*Node
      1,        227.5,          50.
      2,        227.5,           0.
      3,         450.,           0.
      4,         450.,         100.
      5,         225.,         100.
      6,         225.,          50.
      7,        222.5,           0.
      8,        222.5,          50.
      9,           0.,         100.
     10,           0.,           0.
     11,        227.5,   49.7868652
     12,        227.5,   49.5304146
     13,        227.5,   49.2218437
     14,        227.5,   48.8505669
     15,        227.5,   48.4038315
     16,        227.5,   47.8663101
     17,        227.5,   47.2195435
     18,        227.5,   46.4413414
     19,        227.5,    45.504982
     20,        227.5,   44.3783264
** ... 19954 like lines cut
*ELEMENT,TYPE=CPS4T,ELSET=PLATE
100001,	9125,	29,	30,	9169
100002,	9169,	9152,	543,	9125
100003,	9152,	9179,	9123,	543
100004,	9153,	9149,	34,	35
100005,	546,	9170,	9153,	9211
100006,	9227,	9211,	36,	9209
100007,	38,	9154,	9150,	37
100008,	9230,	9154,	9248,	549
100009,	9148,	9173,	9287,	41
100010,	9173,	9148,	551,	9269
100011,	9181,	552,	9234,	9210
100012,	45,	9155,	9147,	44
100013,	554,	553,	9155,	9285
100014,	9285,	9180,	9290,	554
100015,	9187,	9303,	9289,	556
100016,	9157,	557,	9188,	556
100017,	51,	3,	52,	557
100018,	557,	52,	53,	9178
100019,	9178,	53,	54,	9145
100020,	9189,	541,	9188,	542
** ... 19803 like lines cut
*SOLID SECTION,ELSET=PLATE,MATERIAL=CONCRETE
100.,
**  
**
*Nset, nset=Set-1
 10,
*Nset, nset=Set-2
 3,
*Nset, nset=Set-3
 5,
** 
** MATERIALS
** 
*Material, name=CONCRETE
*User Material, constants=6
 2.0E4, 0.2, 2.4, 0.113, 2.5, 4.0
*Depvar
    1,
*Heat Generation
*Conductivity
    1.,
** 
** BOUNDARY CONDITIONS
** 
** Name: BC-1 Type: Displacement/Rotation
*Boundary
Set-1, 1, 2
** Name: BC-2 Type: Displacement/Rotation
*Boundary
Set-2, 2, 2
** ----------------------------------------------------------------
** 
** STEP: Step-1
** 
*Step, name=Step-1, nlgeom=NO, inc=20000
*Coupled Temperature-displacement, steady state
0.01, 1, 0.01, 0.01
** 
** BOUNDARY CONDITIONS
** 
** Name: BC-3 Type: Displacement/Rotation
*Boundary
Set-3, 2, 2, -1.
** 
** CONTROLS
** 
***SOLUTION TECHNIQUE, TYPE=QUASI-NEWTON, REFORM KERNEL=8
*SOLUTION TECHNIQUE, TYPE=SEPARATED
*Controls, parameters=time incrementation
5000, 5000, , 5000, 5000, , , 10, , , 
** OUTPUT REQUESTS
** 
*Restart, write, frequency=0
** 
** FIELD OUTPUT: F-Output-1
** 
*Output, field
*NODE OUTPUT
NT, U
** 
** HISTORY OUTPUT: H-Output-1
** 
*Output, history
*NODE OUTPUT,NSET=Set-1
RF2,
*End Step
