*Node, nset=plate
      1,          0.5,  0.479999989
      2,          0.5,  0.495000005
      3,           0.,  0.495000005
      4,           0.,           0.
      5,           1.,           0.
      6,           1.,  0.479999989
      7,           1.,          0.5
      8,          0.5,          0.5
      9,          0.5,  0.504999995
     10,          0.5,  0.519999981
     11,           1.,  0.519999981
     12,           1.,           1.
     13,           0.,           1.
     14,           0.,  0.504999995
     15,          0.5,  0.481000006
     16,          0.5,  0.481999993
     17,          0.5,   0.48300001
     18,          0.5,  0.483999997
     19,          0.5,  0.485000014
     20,          0.5,  0.486000001
** ... 38415 like lines cut
** UEL ELEMENTS
** U1: Linear softening
** U2: Exponential softening
** U3: Bilinear softneing
** U4: Concrete softening
** U5: Hyperbolic softening
*USER ELEMENT, TYPE=U1, NODES=4, COORDINATES=2, PROPERTIES=6, VARIABLES=4
 1, 2, 11
*ELEMENT, type=U1, elset=AT1
     1,  2155,  5810,  2156,  2182
     2,  2396,  1707,  2398,  2432
     3,  2682,  2763,  2720,  2630
     4,  1737,  3117,  3613,  3655
     5,  1750,  1749,  3668,  3673
     6,  3637,    67,    68,  3662
     7,  3662,  4196,  3693,  1763
     8,  3630,  3692,    72,    73
     9,  3629,  3630,    73,    74
    10,  1739,  3687,  2562,  3610
    11,  2818,  2762,  2815,  6506
    12,  2941,  1711,  2945,  2983
    13,  4070,  4069,   456,   457
    14,   521,  4132,  4131,   520
    15,  2392,  2329,  2359,  2426
    16,  2323,  2326,  2358,  2423
    17,  2808,  2837,  2755,  2805
    18,  2560,  2592,  2629,  2594
    19,  3608,  2134,  4727,  5095
    20,  3608,  3649,  5594,  2365
** ... 38330 like lines cut
*UEL PROPERTY, ELSET=AT1
 2.1E5, 0.3, 1.0, 2.7, 0.005, 1.0
*Element, type=cps4, elset=dummy
100001,  2155,  5810,  2156,  2182
100002,  2396,  1707,  2398,  2432
100003,  2682,  2763,  2720,  2630
100004,  1737,  3117,  3613,  3655
100005,  1750,  1749,  3668,  3673
100006,  3637,    67,    68,  3662
100007,  3662,  4196,  3693,  1763
100008,  3630,  3692,    72,    73
100009,  3629,  3630,    73,    74
100010,  1739,  3687,  2562,  3610
100011,  2818,  2762,  2815,  6506
100012,  2941,  1711,  2945,  2983
100013,  4070,  4069,   456,   457
100014,   521,  4132,  4131,   520
100015,  2392,  2329,  2359,  2426
100016,  2323,  2326,  2358,  2423
100017,  2808,  2837,  2755,  2805
100018,  2560,  2592,  2629,  2594
100019,  3608,  2134,  4727,  5095
100020,  3608,  3649,  5594,  2365
** ... 38330 like lines cut
*Solid Section, elset=dummy, material=dummy
 1.0,
*Nset, nset=bottom
  4,  5, 52, 53, 54, 55, 56, 57, 58, 59, 60, 61, 62, 63, 64, 65
 66, 67, 68, 69, 70
*Nset, nset=top
   12,   13, 1632, 1633, 1634, 1635, 1636, 1637, 1638, 1639, 1640, 1641, 1642, 1643, 1644, 1645
 1646, 1647, 1648, 1649, 1650
** 
** MATERIALS
** 
*Material, name=dummy
*Elastic
 1.0E-10, 0.2
** 
** BOUNDARY CONDITIONS
** 
** Name: Disp-BC-1 Type: Displacement/Rotation
*Boundary
bottom, 1, 2
** ----------------------------------------------------------------
** 
** STEP: Step-1
** 
*Step, name=Step-1, nlgeom=NO, extrapolation=NO, inc=200000
*Static, direct
0.05, 1 
** 
** BOUNDARY CONDITIONS
** 
** Name: Disp-BC-2 Type: Displacement/Rotation
*Boundary
top, 2, 2, 0.004
** 
** CONTROLS
** 
*SOLUTION TECHNIQUE, TYPE=QUASI-NEWTON, REFORM KERNEL=8
*Controls, parameters=time incrementation
5000, 5000, , 5000, 5000, , , 10, , , 
** 
** OUTPUT REQUESTS
** 
*Restart, write, frequency=0
** 
** FIELD OUTPUT: F-Output-1
** 
*Output, field
*Node Output, nset=plate
NT, U
** 
** HISTORY OUTPUT: H-Output-1
** 
*Output, history
*Node Output, nset=top
RF2, U2
*End Step
** ----------------------------------------------------------------
** 
** STEP: Step-2
** 
*Step, name=Step-2, nlgeom=NO, extrapolation=NO, inc=200000
*Static, direct
0.01, 1 
** 
** BOUNDARY CONDITIONS
** 
** Name: Disp-BC-2 Type: Displacement/Rotation
*Boundary
top, 2, 2, 0.006
** 
** CONTROLS
** 
*SOLUTION TECHNIQUE, TYPE=QUASI-NEWTON, REFORM KERNEL=8
*Controls, parameters=time incrementation
5000, 5000, , 5000, 5000, , , 10, , , 
** 
** OUTPUT REQUESTS
** 
*Restart, write, frequency=0
** 
** FIELD OUTPUT: F-Output-1
** 
*Output, field
*Node Output, nset=plate
NT, U
** 
** HISTORY OUTPUT: H-Output-1
** 
*Output, history
*Node Output, nset=top
RF2, U2
*End Step

